%pal nprocs 8 end

! TightOpt B3LYP 6-31G* NumFreq

* xyz	0	1
	C         -3.29142        0.25618        0.08206
	C         -2.14055        1.23829       -0.01150
	C         -0.76634        0.55080       -0.01999
	C         -0.62939       -1.02014       -0.05168
	C         -1.80617       -1.98578        0.01831
	C         -3.16580       -1.29892        0.00150
	H         -4.23764        0.64783        0.20974
	H         -2.26672        2.26120       -0.06398
	H          0.08718        1.13070       -0.00460
	H          0.31911       -1.42020       -0.12458
	H         -4.02119       -1.87248       -0.06445
	H         -1.69257       -3.01010        0.07212
*
