! PM3 LooseOpt

%geom
	Scan
		B 5 0 = 3.0, 1.2, 15
	end
end

*xyz -1 1
	C         -1.55384       -0.43723        0.00000
	Cl        -0.48384       -0.43723        0.00000
	H         -1.91051       -1.20940        0.64919
	H         -1.91051       -0.61336       -0.99331
	H         -1.91051        0.51106        0.34413
	F         -4.54939       -0.44897        0.08390
*
